Circuit: * C:\Users\drmoore\Documents\PEGMA\Hardware\LAB-PLR5010D\docs\PLR5010D-Spice.asc


Date: Tue May 24 03:16:16 2016
Total elapsed time: 0.082 seconds.

tnom = 27
temp = 27
method = trap
totiter = 4405
traniter = 0
tranpoints = 0
accept = 0
rejected = 0
matrix size = 9
fillins = 0
solver = Normal
Matrix Compiler1: 456 bytes object code size  0.2/0.1/[0.1]
Matrix Compiler2: 667 bytes object code size  0.1/0.2/[0.0]


